dssFiles/LoadsC591.dss
! Script for LoadsC591.dss

! LOAD DEFINITIONS
New Load.591_1043938_BRa Bus1=XF_591_758929.1 Phases=1 kV=6.92820323028 Model=1 kW=2.179138 kVar=0.991297 yearly=m3loadmult
New Load.591_10734_BRb Bus1=DJ_2820276_1816.2 Phases=1 kV=6.92820323028 Model=1 kW=6.443325 kVar=2.943914 yearly=m3loadmult
New Load.591_1083944_BRc Bus1=XF_591_796035.3 Phases=1 kV=6.92820323028 Model=1 kW=12.311818 kVar=5.596657 yearly=m3loadmult
New Load.591_1083948_BRc Bus1=DJ_2469207_1816.3 Phases=1 kV=6.92820323028 Model=1 kW=18.979599 kVar=8.627671 yearly=m3loadmult
New Load.591_1086498_BRa Bus1=DJ_3361144_1816.1 Phases=1 kV=6.92820323028 Model=1 kW=6.810851 kVar=3.098279 yearly=m3loadmult
New Load.591_10959_BRb Bus1=DJ_579109_1816.2 Phases=1 kV=6.92820323028 Model=1 kW=9.937868 kVar=4.540548 yearly=m3loadmult
New Load.591_11049_BRa Bus1=DJ_590237_1816.1 Phases=1 kV=6.92820323028 Model=1 kW=1.134967 kVar=0.516301 yearly=m3loadmult
New Load.591_11092_BRa Bus1=DJ_590228_1816.1 Phases=1 kV=6.92820323028 Model=1 kW=8.680148 kVar=3.948629 yearly=m3loadmult
New Load.591_11094_BRa Bus1=DJ_590209_1816.1 Phases=1 kV=6.92820323028 Model=1 kW=5.795133 kVar=2.636226 yearly=m3loadmult
New Load.591_11226_BRa Bus1=DJ_590193_1816.1 Phases=1 kV=6.92820323028 Model=1 kW=10.771004 kVar=4.899767 yearly=m3loadmult
New Load.591_11227_BRa Bus1=DJ_595229_1816.1 Phases=1 kV=6.92820323028 Model=1 kW=26.687531 kVar=12.140249 yearly=m3loadmult
New Load.591_11484_BRb Bus1=DJ_590278_1816.2 Phases=1 kV=6.92820323028 Model=1 kW=30.189853 kVar=13.793549 yearly=m3loadmult
New Load.591_11554_BRa Bus1=DJ_2662898_1816.1 Phases=1 kV=6.92820323028 Model=1 kW=1.710297 kVar=0.778020 yearly=m3loadmult
New Load.591_1163957_BRa Bus1=XF_591_871553.1 Phases=1 kV=6.92820323028 Model=1 kW=8.740400 kVar=3.976038 yearly=m3loadmult
New Load.591_1164914_BRa Bus1=XF_591_873170.1 Phases=1 kV=6.92820323028 Model=1 kW=5.695758 kVar=2.591020 yearly=m3loadmult
New Load.591_11677_BRc Bus1=DJ_595187_1816.3 Phases=1 kV=6.92820323028 Model=1 kW=19.926233 kVar=9.057988 yearly=m3loadmult
New Load.591_1171041_BRc Bus1=XF_591_879602.3 Phases=1 kV=6.92820323028 Model=1 kW=22.501734 kVar=10.228749 yearly=m3loadmult
New Load.591_11713_BRa Bus1=DJ_574012_1816.1 Phases=1 kV=6.92820323028 Model=1 kW=13.958269 kVar=6.349665 yearly=m3loadmult
New Load.591_11715_BRc Bus1=DJ_579246_1816.3 Phases=1 kV=6.92820323028 Model=1 kW=26.268096 kVar=11.940847 yearly=m3loadmult
New Load.591_11716_BRc Bus1=DJ_579239_1816.3 Phases=1 kV=6.92820323028 Model=1 kW=16.089325 kVar=7.313822 yearly=m3loadmult
New Load.591_11718_BRc Bus1=DJ_568962_1816.3 Phases=1 kV=6.92820323028 Model=1 kW=6.327618 kVar=2.876383 yearly=m3loadmult
New Load.591_12001_BRb Bus1=DJ_595210_1816.2 Phases=1 kV=6.92820323028 Model=1 kW=17.262559 kVar=7.887152 yearly=m3loadmult
New Load.591_12064_BRc Bus1=DJ_574020_1816.3 Phases=1 kV=6.92820323028 Model=1 kW=13.617078 kVar=6.189997 yearly=m3loadmult
New Load.591_12065_BRc Bus1=DJ_573998_1816.3 Phases=1 kV=6.92820323028 Model=1 kW=9.923687 kVar=4.511070 yearly=m3loadmult
New Load.591_1223189_BRa Bus1=XF_591_926979.1 Phases=1 kV=6.92820323028 Model=1 kW=18.613467 kVar=8.467330 yearly=m3loadmult
New Load.591_1223189_BRb Bus1=XF_591_926979.2 Phases=1 kV=6.92820323028 Model=1 kW=18.632782 kVar=8.513198 yearly=m3loadmult
New Load.591_1223189_BRc Bus1=XF_591_926979.3 Phases=1 kV=6.92820323028 Model=1 kW=17.377237 kVar=7.899275 yearly=m3loadmult
New Load.591_12249_BRa Bus1=DJ_573953_1816.1 Phases=1 kV=6.92820323028 Model=1 kW=7.060858 kVar=3.212008 yearly=m3loadmult
New Load.591_12256_BRa Bus1=DJ_590355_1816.1 Phases=1 kV=6.92820323028 Model=1 kW=13.386078 kVar=6.089373 yearly=m3loadmult
New Load.591_12259_BRa Bus1=DJ_3699026_1816.1 Phases=1 kV=6.92820323028 Model=1 kW=11.354251 kVar=5.165088 yearly=m3loadmult
New Load.591_12261_BRa Bus1=DJ_3699021_1816.1 Phases=1 kV=6.92820323028 Model=1 kW=10.843124 kVar=4.932574 yearly=m3loadmult
New Load.591_12367_BRc Bus1=DJ_585055_1816.3 Phases=1 kV=6.92820323028 Model=1 kW=14.817136 kVar=6.735515 yearly=m3loadmult
New Load.591_12676_BRa Bus1=DJ_584985_1816.1 Phases=1 kV=6.92820323028 Model=1 kW=14.613098 kVar=6.647549 yearly=m3loadmult
New Load.591_1295814_BRa Bus1=XF_591_10108.1 Phases=1 kV=6.92820323028 Model=1 kW=3.405687 kVar=1.549259 yearly=m3loadmult
New Load.591_1295814_BRb Bus1=XF_591_10108.2 Phases=1 kV=6.92820323028 Model=1 kW=3.409221 kVar=1.557651 yearly=m3loadmult
New Load.591_13302_BRa Bus1=DJ_584952_1816.1 Phases=1 kV=6.92820323028 Model=1 kW=12.781460 kVar=5.814330 yearly=m3loadmult
New Load.591_13308_BRa Bus1=DJ_590170_1816.1 Phases=1 kV=6.92820323028 Model=1 kW=39.739069 kVar=18.077439 yearly=m3loadmult
New Load.591_13311_BRb Bus1=DJ_590227_1816.2 Phases=1 kV=6.92820323028 Model=1 kW=11.952431 kVar=5.460989 yearly=m3loadmult
New Load.591_13513_BRc Bus1=XF_591_928241.3 Phases=1 kV=6.92820323028 Model=1 kW=19.017064 kVar=8.644702 yearly=m3loadmult
New Load.591_13515_BRa Bus1=DJ_584936_1816.1 Phases=1 kV=6.92820323028 Model=1 kW=20.601490 kVar=9.371689 yearly=m3loadmult
New Load.591_14030_BRa Bus1=DJ_590082_1816.1 Phases=1 kV=6.92820323028 Model=1 kW=10.257072 kVar=4.665977 yearly=m3loadmult
New Load.591_14131_BRa Bus1=XF_591_13998.1 Phases=1 kV=6.92820323028 Model=1 kW=10.613222 kVar=4.827991 yearly=m3loadmult
New Load.591_14131_BRb Bus1=XF_591_13998.2 Phases=1 kV=6.92820323028 Model=1 kW=10.624236 kVar=4.854145 yearly=m3loadmult
New Load.591_14131_BRc Bus1=XF_591_13998.3 Phases=1 kV=6.92820323028 Model=1 kW=9.908336 kVar=4.504092 yearly=m3loadmult
New Load.591_14135_BRb Bus1=DJ_568994_1816.2 Phases=1 kV=6.92820323028 Model=1 kW=6.102200 kVar=2.788056 yearly=m3loadmult
New Load.591_14138_BRc Bus1=DJ_569004_1816.3 Phases=1 kV=6.92820323028 Model=1 kW=7.694950 kVar=3.497940 yearly=m3loadmult
New Load.591_14385_BRc Bus1=DJ_595293_1816.3 Phases=1 kV=6.92820323028 Model=1 kW=0.717785 kVar=0.326288 yearly=m3loadmult
New Load.591_14529_BRc Bus1=DJ_590266_1816.3 Phases=1 kV=6.92820323028 Model=1 kW=58.181467 kVar=26.447900 yearly=m3loadmult
New Load.591_14531_BRb Bus1=DJ_590174_1816.2 Phases=1 kV=6.92820323028 Model=1 kW=7.002215 kVar=3.199267 yearly=m3loadmult
New Load.591_14534_BRc Bus1=DJ_590199_1816.3 Phases=1 kV=6.92820323028 Model=1 kW=13.173010 kVar=5.988135 yearly=m3loadmult
New Load.591_14535_BRb Bus1=DJ_590176_1816.2 Phases=1 kV=6.92820323028 Model=1 kW=7.501700 kVar=3.427479 yearly=m3loadmult
New Load.591_14554_BRa Bus1=DJ_590092_1816.1 Phases=1 kV=6.92820323028 Model=1 kW=4.280730 kVar=1.947319 yearly=m3loadmult
New Load.591_14716_BRa Bus1=DJ_584851_1816.1 Phases=1 kV=6.92820323028 Model=1 kW=1.527237 kVar=0.694746 yearly=m3loadmult
New Load.591_14733_BRa Bus1=DJ_590091_1816.1 Phases=1 kV=6.92820323028 Model=1 kW=18.541047 kVar=8.434386 yearly=m3loadmult
New Load.591_14876_BRa Bus1=XF_591_9948.1 Phases=1 kV=6.92820323028 Model=1 kW=47.487039 kVar=21.602017 yearly=m3loadmult
New Load.591_14876_BRb Bus1=XF_591_9948.2 Phases=1 kV=6.92820323028 Model=1 kW=47.536318 kVar=21.719038 yearly=m3loadmult
New Load.591_14876_BRc Bus1=XF_591_9948.3 Phases=1 kV=6.92820323028 Model=1 kW=44.333145 kVar=20.152785 yearly=m3loadmult
New Load.591_14880_BRb Bus1=DJ_2662891_1816.2 Phases=1 kV=6.92820323028 Model=1 kW=23.947919 kVar=10.941650 yearly=m3loadmult
New Load.591_14882_BRb Bus1=DJ_2662909_1816.2 Phases=1 kV=6.92820323028 Model=1 kW=11.339463 kVar=5.180928 yearly=m3loadmult
New Load.591_14884_BRa Bus1=DJ_2662913_1816.1 Phases=1 kV=6.92820323028 Model=1 kW=5.013209 kVar=2.280526 yearly=m3loadmult
New Load.591_15065_BRb Bus1=DJ_573891_1816.2 Phases=1 kV=6.92820323028 Model=1 kW=23.261783 kVar=10.628159 yearly=m3loadmult
New Load.591_15068_BRa Bus1=DJ_579209_1816.1 Phases=1 kV=6.92820323028 Model=1 kW=6.872882 kVar=3.126498 yearly=m3loadmult
New Load.591_15209_BRa Bus1=DJ_590229_1816.1 Phases=1 kV=6.92820323028 Model=1 kW=10.969748 kVar=4.990176 yearly=m3loadmult
New Load.591_15215_BRa Bus1=DJ_590265_1816.1 Phases=1 kV=6.92820323028 Model=1 kW=9.688412 kVar=4.407292 yearly=m3loadmult
New Load.591_15572_BRb Bus1=DJ_568986_1816.2 Phases=1 kV=6.92820323028 Model=1 kW=25.293951 kVar=11.556643 yearly=m3loadmult
New Load.591_15573_BRb Bus1=DJ_568989_1816.2 Phases=1 kV=6.92820323028 Model=1 kW=11.424347 kVar=5.219711 yearly=m3loadmult
New Load.591_15595_BRc Bus1=DJ_569002_1816.3 Phases=1 kV=6.92820323028 Model=1 kW=20.626928 kVar=9.376507 yearly=m3loadmult
New Load.591_15597_BRb Bus1=DJ_573897_1816.2 Phases=1 kV=6.92820323028 Model=1 kW=10.437353 kVar=4.768759 yearly=m3loadmult
New Load.591_15601_BRa Bus1=DJ_573934_1816.1 Phases=1 kV=6.92820323028 Model=1 kW=16.987016 kVar=7.727452 yearly=m3loadmult
New Load.591_15603_BRa Bus1=DJ_573922_1816.1 Phases=1 kV=6.92820323028 Model=1 kW=9.871471 kVar=4.490566 yearly=m3loadmult
New Load.591_15709_BRa Bus1=DJ_573946_1816.1 Phases=1 kV=6.92820323028 Model=1 kW=21.351686 kVar=9.712955 yearly=m3loadmult
New Load.591_15715_BRb Bus1=DJ_573944_1816.2 Phases=1 kV=6.92820323028 Model=1 kW=3.272098 kVar=1.495001 yearly=m3loadmult
New Load.591_15771_BRa Bus1=DJ_568988_1816.1 Phases=1 kV=6.92820323028 Model=1 kW=23.845886 kVar=10.847576 yearly=m3loadmult
New Load.591_15779_BRc Bus1=DJ_574021_1816.3 Phases=1 kV=6.92820323028 Model=1 kW=11.531560 kVar=5.241971 yearly=m3loadmult
New Load.591_15781_BRa Bus1=DJ_3716439_1816.1 Phases=1 kV=6.92820323028 Model=1 kW=27.887869 kVar=12.686288 yearly=m3loadmult
New Load.591_15787_BRa Bus1=DJ_574022_1816.1 Phases=1 kV=6.92820323028 Model=1 kW=1.906745 kVar=0.867385 yearly=m3loadmult
New Load.591_16497_BRc Bus1=DJ_584958_1816.3 Phases=1 kV=6.92820323028 Model=1 kW=16.000017 kVar=7.273224 yearly=m3loadmult
New Load.591_16502_BRa Bus1=DJ_585003_1816.1 Phases=1 kV=6.92820323028 Model=1 kW=18.574021 kVar=8.449386 yearly=m3loadmult
New Load.591_16503_BRa Bus1=DJ_585019_1816.1 Phases=1 kV=6.92820323028 Model=1 kW=14.635850 kVar=6.657899 yearly=m3loadmult
New Load.591_16516_BRa Bus1=DJ_590233_1816.1 Phases=1 kV=6.92820323028 Model=1 kW=7.917575 kVar=3.601732 yearly=m3loadmult
New Load.591_16678_BRc Bus1=DJ_604030_1816.3 Phases=1 kV=6.92820323028 Model=1 kW=41.959669 kVar=19.073860 yearly=m3loadmult
New Load.591_16845_BRc Bus1=DJ_584913_1816.3 Phases=1 kV=6.92820323028 Model=1 kW=18.450496 kVar=8.387153 yearly=m3loadmult
New Load.591_16901_BRb Bus1=DJ_584978_1816.2 Phases=1 kV=6.92820323028 Model=1 kW=24.618983 kVar=11.248255 yearly=m3loadmult
New Load.591_16980_BRa Bus1=DJ_584912_1816.1 Phases=1 kV=6.92820323028 Model=1 kW=4.274172 kVar=1.944336 yearly=m3loadmult
New Load.591_17253_BRa Bus1=DJ_599529_1816.1 Phases=1 kV=6.92820323028 Model=1 kW=4.081176 kVar=1.856541 yearly=m3loadmult
New Load.591_17255_BRa Bus1=XF_591_14085.1 Phases=1 kV=6.92820323028 Model=1 kW=3.640264 kVar=1.655969 yearly=m3loadmult
New Load.591_17255_BRb Bus1=XF_591_14085.2 Phases=1 kV=6.92820323028 Model=1 kW=3.644042 kVar=1.664939 yearly=m3loadmult
New Load.591_17255_BRc Bus1=XF_591_14085.3 Phases=1 kV=6.92820323028 Model=1 kW=3.398493 kVar=1.544873 yearly=m3loadmult
New Load.591_17256_BRb Bus1=DJ_590271_1816.2 Phases=1 kV=6.92820323028 Model=1 kW=33.007578 kVar=15.080950 yearly=m3loadmult
New Load.591_17259_BRa Bus1=XF_591_9951.1 Phases=1 kV=6.92820323028 Model=1 kW=109.864851 kVar=49.977899 yearly=m3loadmult
New Load.591_17259_BRb Bus1=XF_591_9951.2 Phases=1 kV=6.92820323028 Model=1 kW=109.978862 kVar=50.248634 yearly=m3loadmult
New Load.591_17259_BRc Bus1=XF_591_9951.3 Phases=1 kV=6.92820323028 Model=1 kW=102.568079 kVar=46.624991 yearly=m3loadmult
New Load.591_17429_BRa Bus1=DJ_595316_1816.1 Phases=1 kV=6.92820323028 Model=1 kW=17.102705 kVar=7.780079 yearly=m3loadmult
New Load.591_17432_BRa Bus1=DJ_595305_1816.1 Phases=1 kV=6.92820323028 Model=1 kW=19.642260 kVar=8.935331 yearly=m3loadmult
New Load.591_17445_BRa Bus1=XF_591_12626.1 Phases=1 kV=6.92820323028 Model=1 kW=35.864972 kVar=16.315099 yearly=m3loadmult
New Load.591_17445_BRb Bus1=XF_591_12626.2 Phases=1 kV=6.92820323028 Model=1 kW=35.902191 kVar=16.403480 yearly=m3loadmult
New Load.591_17445_BRc Bus1=XF_591_12626.3 Phases=1 kV=6.92820323028 Model=1 kW=33.482968 kVar=15.220555 yearly=m3loadmult
New Load.591_17451_BRa Bus1=DJ_590242_1816.1 Phases=1 kV=6.92820323028 Model=1 kW=16.800395 kVar=7.642558 yearly=m3loadmult
New Load.591_17624_OHb Bus1=XF_591_10212.2 Phases=1 kV=6.92820323028 Model=1 kW=0.845826 kVar=0.386453 yearly=m3loadmult
New Load.591_17624_OHc Bus1=XF_591_10212.3 Phases=1 kV=6.92820323028 Model=1 kW=0.788831 kVar=0.358584 yearly=m3loadmult
New Load.591_17626_OHb Bus1=DJ_585107_1816.2 Phases=1 kV=6.92820323028 Model=1 kW=9.757367 kVar=4.458078 yearly=m3loadmult
New Load.591_17626_OHc Bus1=DJ_585107_1816.3 Phases=1 kV=6.92820323028 Model=1 kW=9.099880 kVar=4.136587 yearly=m3loadmult
New Load.591_17627_OHb Bus1=XF_591_9933.2 Phases=1 kV=6.92820323028 Model=1 kW=3.518385 kVar=1.607528 yearly=m3loadmult
New Load.591_17627_OHc Bus1=XF_591_9933.3 Phases=1 kV=6.92820323028 Model=1 kW=3.281304 kVar=1.491602 yearly=m3loadmult
New Load.591_17718_BRb Bus1=DJ_590138_1816.2 Phases=1 kV=6.92820323028 Model=1 kW=17.396374 kVar=7.948291 yearly=m3loadmult
New Load.591_17720_BRa Bus1=DJ_2662905_1816.1 Phases=1 kV=6.92820323028 Model=1 kW=10.064010 kVar=4.578153 yearly=m3loadmult
New Load.591_17721_BRb Bus1=DJ_2662901_1816.2 Phases=1 kV=6.92820323028 Model=1 kW=10.352535 kVar=4.730006 yearly=m3loadmult
New Load.591_17724_BRb Bus1=DJ_590151_1816.2 Phases=1 kV=6.92820323028 Model=1 kW=16.203683 kVar=7.403358 yearly=m3loadmult
New Load.591_17753_BRc Bus1=DJ_590246_1816.3 Phases=1 kV=6.92820323028 Model=1 kW=13.505591 kVar=6.139318 yearly=m3loadmult
New Load.591_17784_BRa Bus1=DJ_595277_1816.1 Phases=1 kV=6.92820323028 Model=1 kW=5.834151 kVar=2.653975 yearly=m3loadmult
New Load.591_17831_OHb Bus1=XF_591_11386.2 Phases=1 kV=6.92820323028 Model=1 kW=4.363426 kVar=1.993621 yearly=m3loadmult
New Load.591_17831_OHc Bus1=XF_591_11386.3 Phases=1 kV=6.92820323028 Model=1 kW=4.069402 kVar=1.849853 yearly=m3loadmult
New Load.591_17866_OHb Bus1=DJ_590099_1816.2 Phases=1 kV=6.92820323028 Model=1 kW=3.355032 kVar=1.532892 yearly=m3loadmult
New Load.591_17866_OHc Bus1=DJ_590099_1816.3 Phases=1 kV=6.92820323028 Model=1 kW=3.128957 kVar=1.422349 yearly=m3loadmult
New Load.591_17925_BRb Bus1=DJ_568987_1816.2 Phases=1 kV=6.92820323028 Model=1 kW=24.680560 kVar=11.276389 yearly=m3loadmult
New Load.591_17929_BRb Bus1=DJ_573914_1816.2 Phases=1 kV=6.92820323028 Model=1 kW=28.453120 kVar=13.000047 yearly=m3loadmult
New Load.591_17981_OHb Bus1=DJ_599540_1816.2 Phases=1 kV=6.92820323028 Model=1 kW=9.964308 kVar=4.552628 yearly=m3loadmult
New Load.591_17981_OHc Bus1=DJ_599540_1816.3 Phases=1 kV=6.92820323028 Model=1 kW=9.292876 kVar=4.224319 yearly=m3loadmult
New Load.591_18036_BRc Bus1=DJ_2662894_1816.3 Phases=1 kV=6.92820323028 Model=1 kW=31.234888 kVar=14.198632 yearly=m3loadmult
New Load.591_18038_BRb Bus1=DJ_590132_1816.2 Phases=1 kV=6.92820323028 Model=1 kW=3.873365 kVar=1.769716 yearly=m3loadmult
New Load.591_18041_BRb Bus1=DJ_590152_1816.2 Phases=1 kV=6.92820323028 Model=1 kW=9.900040 kVar=4.523265 yearly=m3loadmult
New Load.591_18042_BRa Bus1=DJ_2662896_1816.1 Phases=1 kV=6.92820323028 Model=1 kW=14.216584 kVar=6.467173 yearly=m3loadmult
New Load.591_18045_BRc Bus1=DJ_595202_1816.3 Phases=1 kV=6.92820323028 Model=1 kW=15.672131 kVar=7.124175 yearly=m3loadmult
New Load.591_18048_BRc Bus1=DJ_595177_1816.3 Phases=1 kV=6.92820323028 Model=1 kW=15.460184 kVar=7.027829 yearly=m3loadmult
New Load.591_18067_BRa Bus1=DJ_603998_1816.1 Phases=1 kV=6.92820323028 Model=1 kW=11.085546 kVar=5.042853 yearly=m3loadmult
New Load.591_18206_OHb Bus1=DJ_579112_1816.2 Phases=1 kV=6.92820323028 Model=1 kW=1.083788 kVar=0.495176 yearly=m3loadmult
New Load.591_18206_OHc Bus1=DJ_579112_1816.3 Phases=1 kV=6.92820323028 Model=1 kW=1.010759 kVar=0.459467 yearly=m3loadmult
New Load.591_18208_MCa Bus1=XF_591_12630.1 Phases=1 kV=6.92820323028 Model=1 kW=3.372736 kVar=1.534269 yearly=m3loadmult
New Load.591_18208_MCb Bus1=XF_591_12630.2 Phases=1 kV=6.92820323028 Model=1 kW=3.376236 kVar=1.542581 yearly=m3loadmult
New Load.591_18218_MCb Bus1=XF_591_14375.2 Phases=1 kV=6.92820323028 Model=1 kW=1.913122 kVar=0.874093 yearly=m3loadmult
New Load.591_18218_MCc Bus1=XF_591_14375.3 Phases=1 kV=6.92820323028 Model=1 kW=1.784209 kVar=0.811059 yearly=m3loadmult
New Load.591_18245_BRa Bus1=DJ_595348_1816.1 Phases=1 kV=6.92820323028 Model=1 kW=46.157453 kVar=20.997184 yearly=m3loadmult
New Load.591_18290_BRc Bus1=DJ_590220_1816.3 Phases=1 kV=6.92820323028 Model=1 kW=7.040154 kVar=3.200285 yearly=m3loadmult
New Load.591_18302_BRb Bus1=DJ_573900_1816.2 Phases=1 kV=6.92820323028 Model=1 kW=10.688012 kVar=4.883284 yearly=m3loadmult
New Load.591_18522_OHb Bus1=DJ_585084_1816.2 Phases=1 kV=6.92820323028 Model=1 kW=1.774114 kVar=0.810581 yearly=m3loadmult
New Load.591_18522_OHc Bus1=DJ_585084_1816.3 Phases=1 kV=6.92820323028 Model=1 kW=1.654568 kVar=0.752127 yearly=m3loadmult
New Load.591_18523_OHb Bus1=XF_591_10297.2 Phases=1 kV=6.92820323028 Model=1 kW=7.305231 kVar=3.337713 yearly=m3loadmult
New Load.591_18523_OHc Bus1=XF_591_10297.3 Phases=1 kV=6.92820323028 Model=1 kW=6.812977 kVar=3.097016 yearly=m3loadmult
New Load.591_18524_OHb Bus1=DJ_585115_1816.2 Phases=1 kV=6.92820323028 Model=1 kW=1.890085 kVar=0.863568 yearly=m3loadmult
New Load.591_18524_OHc Bus1=DJ_585115_1816.3 Phases=1 kV=6.92820323028 Model=1 kW=1.762724 kVar=0.801292 yearly=m3loadmult
New Load.591_18676_OHb Bus1=XF_591_9483.2 Phases=1 kV=6.92820323028 Model=1 kW=6.453253 kVar=2.948450 yearly=m3loadmult
New Load.591_18676_OHc Bus1=XF_591_9483.3 Phases=1 kV=6.92820323028 Model=1 kW=6.018409 kVar=2.735824 yearly=m3loadmult
New Load.591_18677_OHb Bus1=DJ_608071_1816.2 Phases=1 kV=6.92820323028 Model=1 kW=2.839054 kVar=1.297146 yearly=m3loadmult
New Load.591_18677_OHc Bus1=DJ_608071_1816.3 Phases=1 kV=6.92820323028 Model=1 kW=2.647748 kVar=1.203603 yearly=m3loadmult
New Load.591_18679_BRb Bus1=DJ_590212_1816.2 Phases=1 kV=6.92820323028 Model=1 kW=12.941585 kVar=5.912927 yearly=m3loadmult
New Load.591_18682_BRb Bus1=DJ_590186_1816.2 Phases=1 kV=6.92820323028 Model=1 kW=13.279810 kVar=6.067460 yearly=m3loadmult
New Load.591_18822_BRa Bus1=DJ_590219_1816.1 Phases=1 kV=6.92820323028 Model=1 kW=9.124540 kVar=4.150785 yearly=m3loadmult
New Load.591_18825_BRa Bus1=DJ_595358_1816.1 Phases=1 kV=6.92820323028 Model=1 kW=21.668464 kVar=9.857059 yearly=m3loadmult
New Load.591_18826_BRa Bus1=XF_591_12936.1 Phases=1 kV=6.92820323028 Model=1 kW=149.815706 kVar=68.151680 yearly=m3loadmult
New Load.591_18826_BRb Bus1=XF_591_12936.2 Phases=1 kV=6.92820323028 Model=1 kW=149.971176 kVar=68.520865 yearly=m3loadmult
New Load.591_18826_BRc Bus1=XF_591_12936.3 Phases=1 kV=6.92820323028 Model=1 kW=139.865563 kVar=63.579533 yearly=m3loadmult
New Load.591_19149_OHb Bus1=XF_591_9881.2 Phases=1 kV=6.92820323028 Model=1 kW=4.968345 kVar=2.270005 yearly=m3loadmult
New Load.591_19149_OHc Bus1=XF_591_9881.3 Phases=1 kV=6.92820323028 Model=1 kW=4.633559 kVar=2.106305 yearly=m3loadmult
New Load.591_19153_OHb Bus1=XF_591_13125.2 Phases=1 kV=6.92820323028 Model=1 kW=6.203772 kVar=2.834463 yearly=m3loadmult
New Load.591_19153_OHc Bus1=XF_591_13125.3 Phases=1 kV=6.92820323028 Model=1 kW=5.785739 kVar=2.630058 yearly=m3loadmult
New Load.591_19272_BRc Bus1=DJ_2662917_1816.3 Phases=1 kV=6.92820323028 Model=1 kW=22.229855 kVar=10.105159 yearly=m3loadmult
New Load.591_19374_OHa Bus1=DJ_584853_1816.1 Phases=1 kV=6.92820323028 Model=1 kW=10.111742 kVar=4.599866 yearly=m3loadmult
New Load.591_19374_OHb Bus1=DJ_584853_1816.2 Phases=1 kV=6.92820323028 Model=1 kW=10.122236 kVar=4.624784 yearly=m3loadmult
New Load.591_19400_MCb Bus1=CP_591_11424.2 Phases=1 kV=6.92820323028 Model=1 kW=10.945739 kVar=5.001038 yearly=m3loadmult
New Load.591_19400_MCc Bus1=CP_591_11424.3 Phases=1 kV=6.92820323028 Model=1 kW=10.208174 kVar=4.640391 yearly=m3loadmult
New Load.591_19567_BRa Bus1=DJ_573959_1816.1 Phases=1 kV=6.92820323028 Model=1 kW=1.019902 kVar=0.463957 yearly=m3loadmult
New Load.591_19570_BRa Bus1=XF_591_16620.1 Phases=1 kV=6.92820323028 Model=1 kW=19.840830 kVar=9.025662 yearly=m3loadmult
New Load.591_19570_BRb Bus1=XF_591_16620.2 Phases=1 kV=6.92820323028 Model=1 kW=19.861419 kVar=9.074555 yearly=m3loadmult
New Load.591_19570_BRc Bus1=XF_591_16620.3 Phases=1 kV=6.92820323028 Model=1 kW=18.523083 kVar=8.420150 yearly=m3loadmult
New Load.591_19585_BRa Bus1=DJ_595330_1816.1 Phases=1 kV=6.92820323028 Model=1 kW=18.191698 kVar=8.275466 yearly=m3loadmult
New Load.591_19586_BRa Bus1=XF_591_12189.1 Phases=1 kV=6.92820323028 Model=1 kW=0.224901 kVar=0.102308 yearly=m3loadmult
New Load.591_19612_OHa Bus1=XF_591_13563.1 Phases=1 kV=6.92820323028 Model=1 kW=9.705018 kVar=4.414846 yearly=m3loadmult
New Load.591_19612_OHb Bus1=XF_591_13563.2 Phases=1 kV=6.92820323028 Model=1 kW=9.715089 kVar=4.438762 yearly=m3loadmult
New Load.591_19617_OHb Bus1=XF_591_13838.2 Phases=1 kV=6.92820323028 Model=1 kW=5.249627 kVar=2.398521 yearly=m3loadmult
New Load.591_19617_OHc Bus1=XF_591_13838.3 Phases=1 kV=6.92820323028 Model=1 kW=4.895888 kVar=2.225553 yearly=m3loadmult
New Load.591_19664_OHb Bus1=DJ_584861_1816.2 Phases=1 kV=6.92820323028 Model=1 kW=7.573973 kVar=3.460499 yearly=m3loadmult
New Load.591_19664_OHc Bus1=DJ_584861_1816.3 Phases=1 kV=6.92820323028 Model=1 kW=7.063611 kVar=3.210948 yearly=m3loadmult
New Load.591_19668_OHb Bus1=XF_591_12160.2 Phases=1 kV=6.92820323028 Model=1 kW=4.768433 kVar=2.178666 yearly=m3loadmult
New Load.591_19668_OHc Bus1=XF_591_12160.3 Phases=1 kV=6.92820323028 Model=1 kW=4.447118 kVar=2.021553 yearly=m3loadmult
New Load.591_19816_MCa Bus1=XF_591_9324.1 Phases=1 kV=6.92820323028 Model=1 kW=5.486286 kVar=2.495731 yearly=m3loadmult
New Load.591_19816_MCb Bus1=XF_591_9324.2 Phases=1 kV=6.92820323028 Model=1 kW=5.491980 kVar=2.509250 yearly=m3loadmult
New Load.591_19850_OHb Bus1=XF_591_12245.2 Phases=1 kV=6.92820323028 Model=1 kW=5.553237 kVar=2.537238 yearly=m3loadmult
New Load.591_19850_OHc Bus1=XF_591_12245.3 Phases=1 kV=6.92820323028 Model=1 kW=5.179040 kVar=2.354267 yearly=m3loadmult
New Load.591_2000329_MCa Bus1=XF_591_31206.1 Phases=1 kV=6.92820323028 Model=1 kW=3.012476 kVar=1.370386 yearly=m3loadmult
New Load.591_2000329_MCc Bus1=XF_591_31206.3 Phases=1 kV=6.92820323028 Model=1 kW=2.812399 kVar=1.278449 yearly=m3loadmult
New Load.591_20008_OHb Bus1=DJ_590095_1816.2 Phases=1 kV=6.92820323028 Model=1 kW=11.085793 kVar=5.065028 yearly=m3loadmult
New Load.591_20008_OHc Bus1=DJ_590095_1816.3 Phases=1 kV=6.92820323028 Model=1 kW=10.338792 kVar=4.699767 yearly=m3loadmult
New Load.591_20009_OHb Bus1=XF_591_9440.2 Phases=1 kV=6.92820323028 Model=1 kW=4.323373 kVar=1.975321 yearly=m3loadmult
New Load.591_20009_OHc Bus1=XF_591_9440.3 Phases=1 kV=6.92820323028 Model=1 kW=4.032048 kVar=1.832872 yearly=m3loadmult
New Load.591_20011_OHb Bus1=DJ_595151_1816.2 Phases=1 kV=6.92820323028 Model=1 kW=5.358504 kVar=2.448266 yearly=m3loadmult
New Load.591_20011_OHc Bus1=DJ_595151_1816.3 Phases=1 kV=6.92820323028 Model=1 kW=4.997429 kVar=2.271711 yearly=m3loadmult
New Load.591_20012_OHb Bus1=XF_591_9442.2 Phases=1 kV=6.92820323028 Model=1 kW=2.634077 kVar=1.203493 yearly=m3loadmult
New Load.591_20012_OHc Bus1=XF_591_9442.3 Phases=1 kV=6.92820323028 Model=1 kW=2.456583 kVar=1.116704 yearly=m3loadmult
New Load.591_20157_BRa Bus1=DJ_599524_1816.1 Phases=1 kV=6.92820323028 Model=1 kW=4.576482 kVar=2.081857 yearly=m3loadmult
New Load.591_20159_BRa Bus1=DJ_599512_1816.1 Phases=1 kV=6.92820323028 Model=1 kW=10.817234 kVar=4.920797 yearly=m3loadmult
New Load.591_20164_BRa Bus1=DJ_599517_1816.1 Phases=1 kV=6.92820323028 Model=1 kW=6.326528 kVar=2.877959 yearly=m3loadmult
New Load.591_20170_BRa Bus1=DJ_599522_1816.1 Phases=1 kV=6.92820323028 Model=1 kW=11.951678 kVar=5.436860 yearly=m3loadmult
New Load.591_20173_BRa Bus1=DJ_604002_1816.1 Phases=1 kV=6.92820323028 Model=1 kW=15.324414 kVar=6.971129 yearly=m3loadmult
New Load.591_20178_BRa Bus1=DJ_604001_1816.1 Phases=1 kV=6.92820323028 Model=1 kW=12.667178 kVar=5.762343 yearly=m3loadmult
New Load.591_20182_OHb Bus1=DJ_599543_1816.2 Phases=1 kV=6.92820323028 Model=1 kW=1.960767 kVar=0.895862 yearly=m3loadmult
New Load.591_20182_OHc Bus1=DJ_599543_1816.3 Phases=1 kV=6.92820323028 Model=1 kW=1.828643 kVar=0.831257 yearly=m3loadmult
New Load.591_20184_OHb Bus1=FU_591_2591.2 Phases=1 kV=6.92820323028 Model=1 kW=3.001623 kVar=1.371422 yearly=m3loadmult
New Load.591_20184_OHc Bus1=FU_591_2591.3 Phases=1 kV=6.92820323028 Model=1 kW=2.799362 kVar=1.272523 yearly=m3loadmult
New Load.591_2024678_MCa Bus1=XF_591_16696.1 Phases=1 kV=6.92820323028 Model=1 kW=33.050253 kVar=15.034674 yearly=m3loadmult
New Load.591_2024678_MCb Bus1=XF_591_16696.2 Phases=1 kV=6.92820323028 Model=1 kW=33.084550 kVar=15.116118 yearly=m3loadmult
...


! Large customers
New Load.591_2936115_MCa Bus1=PM_591_36817.1 Phases=1 kV=6.92820323028 Model=1 kW=33.1 kVar=16.031 yearly=m3loadmult
New Load.591_2936115_MCb Bus1=PM_591_36817.2 Phases=1 kV=6.92820323028 Model=1 kW=33.1 kVar=16.031 yearly=m3loadmult
New Load.591_2936115_MCc Bus1=PM_591_36817.3 Phases=1 kV=6.92820323028 Model=1 kW=33.1 kVar=16.031 yearly=m3loadmult

New Load.591_21960_MCa Bus1=PM_591_65.1 Phases=1 kV=6.92820323028 Model=1 kW=42.1 kVar=20.38 yearly=m3loadmult
New Load.591_21960_MCb Bus1=PM_591_65.2 Phases=1 kV=6.92820323028 Model=1 kW=42.1 kVar=20.38 yearly=m3loadmult
New Load.591_21960_MCc Bus1=PM_591_65.3 Phases=1 kV=6.92820323028 Model=1 kW=42.1 kVar=20.38 yearly=m3loadmult

New Load.591_42078_MCa Bus1=PM_591_71.1 Phases=1 kV=6.92820323028 Model=1 kW=118.5 kVar=57.37 yearly=m3loadmult
New Load.591_42078_MCb Bus1=PM_591_71.2 Phases=1 kV=6.92820323028 Model=1 kW=118.5 kVar=57.37 yearly=m3loadmult
New Load.591_42078_MCc Bus1=PM_591_71.3 Phases=1 kV=6.92820323028 Model=1 kW=118.5 kVar=57.37 yearly=m3loadmult



